<?xml version="1.0" encoding="UTF-8"?>

<!-- generated on 2025-02-23 23:20:55 by Eclipse SUMO netedit Version 1.20.0
<configuration xmlns:xsi="http://www.w3.org/2001/XMLSchema-instance" xsi:noNamespaceSchemaLocation="http://sumo.dlr.de/xsd/neteditConfiguration.xsd">

    <input>
        <sumocfg-file value="/home/refo/Documents/Github/marl/scenarios/nuovo/simulation.sumocfg"/>
        <additional-files value=""/>
        <route-files value="/home/refo/Documents/Github/marl/scenarios/nuovo/routes.rou.xml"/>
        <sumo-net-file value="/home/refo/Documents/Github/marl/scenarios/nuovo/network.net.xml"/>
    </input>

    <output>
        <output-file value="/home/refo/Documents/Github/marl/scenarios/nuovo/network.net.xml"/>
    </output>

    <processing>
        <geometry.min-radius.fix.railways value="false"/>
        <geometry.max-grade.fix value="false"/>
        <offset.disable-normalization value="true"/>
        <lefthand value="0"/>
    </processing>

    <junctions>
        <no-turnarounds value="true"/>
        <junctions.corner-detail value="5"/>
        <junctions.limit-turn-speed value="5.50"/>
        <rectangular-lane-cut value="0"/>
    </junctions>

    <pedestrian>
        <walkingareas value="0"/>
    </pedestrian>

</configuration>
-->

<net version="1.20" junctionCornerDetail="5" limitTurnSpeed="5.50" xmlns:xsi="http://www.w3.org/2001/XMLSchema-instance" xsi:noNamespaceSchemaLocation="http://sumo.dlr.de/xsd/net_file.xsd">

    <location netOffset="0.00,0.00" convBoundary="-137.80,-79.82,193.52,126.00" origBoundary="-10000000000.00,-10000000000.00,10000000000.00,10000000000.00" projParameter="!"/>

    <edge id=":J1_0" function="internal">
        <lane id=":J1_0_0" index="0" speed="13.63" length="15.69" shape="-21.20,40.48 -24.12,37.84 -27.32,35.30 -30.76,33.39 -34.41,32.63"/>
    </edge>
    <edge id=":J1_1" function="internal">
        <lane id=":J1_1_0" index="0" speed="9.49" length="10.43" shape="-21.20,40.48 -25.07,35.75 -26.15,31.57"/>
    </edge>
    <edge id=":J1_2" function="internal">
        <lane id=":J1_2_0" index="0" speed="7.49" length="9.95" shape="-21.20,40.48 -25.45,35.65 -26.12,32.20"/>
    </edge>
    <edge id=":J1_12" function="internal">
        <lane id=":J1_12_0" index="0" speed="9.49" length="11.70" shape="-26.15,31.57 -26.29,31.03 -24.88,26.31 -20.83,21.60"/>
    </edge>
    <edge id=":J1_13" function="internal">
        <lane id=":J1_13_0" index="0" speed="7.49" length="10.14" shape="-26.12,32.20 -23.19,30.13 -16.67,29.44"/>
    </edge>
    <edge id=":J1_3" function="internal">
        <lane id=":J1_3_0" index="0" speed="5.50" length="10.04" shape="-16.67,32.64 -19.96,32.99 -21.45,34.01 -21.15,35.72 -19.04,38.12"/>
    </edge>
    <edge id=":J1_4" function="internal">
        <lane id=":J1_4_0" index="0" speed="13.89" length="17.74" shape="-16.67,32.64 -34.41,32.63"/>
    </edge>
    <edge id=":J1_5" function="internal">
        <lane id=":J1_5_0" index="0" speed="7.48" length="6.41" shape="-16.67,32.64 -23.05,31.97"/>
    </edge>
    <edge id=":J1_14" function="internal">
        <lane id=":J1_14_0" index="0" speed="7.48" length="13.83" shape="-23.05,31.97 -23.21,31.95 -26.09,29.88 -25.29,26.43 -20.83,21.60"/>
    </edge>
    <edge id=":J1_6" function="internal">
        <lane id=":J1_6_0" index="0" speed="5.46" length="9.97" shape="-18.71,24.00 -20.91,26.38 -21.31,28.08 -19.89,29.10 -16.67,29.44"/>
    </edge>
    <edge id=":J1_7" function="internal">
        <lane id=":J1_7_0" index="0" speed="8.28" length="16.54" shape="-18.71,24.00 -21.76,27.53 -22.82,31.06 -21.92,34.59 -19.04,38.12"/>
    </edge>
    <edge id=":J1_8" function="internal">
        <lane id=":J1_8_0" index="0" speed="13.89" length="18.18" shape="-18.71,24.00 -22.05,26.74 -26.10,29.56 -30.38,31.75 -34.41,32.63"/>
    </edge>
    <edge id=":J1_9" function="internal">
        <lane id=":J1_9_0" index="0" speed="13.89" length="15.98" shape="-34.40,29.43 -30.70,28.67 -27.15,26.75 -23.83,24.21 -20.83,21.60"/>
    </edge>
    <edge id=":J1_10" function="internal">
        <lane id=":J1_10_0" index="0" speed="13.89" length="17.73" shape="-34.40,29.43 -16.67,29.44"/>
    </edge>
    <edge id=":J1_11" function="internal">
        <lane id=":J1_11_0" index="0" speed="13.89" length="3.33" shape="-34.40,29.43 -31.15,30.15"/>
    </edge>
    <edge id=":J1_15" function="internal">
        <lane id=":J1_15_0" index="0" speed="13.89" length="14.61" shape="-31.15,30.15 -30.41,30.32 -26.23,32.51 -22.30,35.34 -19.04,38.12"/>
    </edge>
    <edge id=":J2_0" function="internal">
        <lane id=":J2_0_0" index="0" speed="13.89" length="16.08" shape="77.11,33.07 73.38,33.83 69.78,35.73 66.41,38.26 63.38,40.86"/>
    </edge>
    <edge id=":J2_1" function="internal">
        <lane id=":J2_1_0" index="0" speed="13.89" length="17.86" shape="77.11,33.07 59.25,32.98"/>
    </edge>
    <edge id=":J2_2" function="internal">
        <lane id=":J2_2_0" index="0" speed="13.04" length="3.57" shape="77.11,33.07 73.92,32.52 73.62,32.37"/>
    </edge>
    <edge id=":J2_12" function="internal">
        <lane id=":J2_12_0" index="0" speed="13.04" length="13.63" shape="73.62,32.37 70.49,30.85 66.80,28.08 62.86,24.19"/>
    </edge>
    <edge id=":J2_3" function="internal">
        <lane id=":J2_3_0" index="0" speed="12.02" length="14.56" shape="65.22,22.03 68.66,25.46 71.78,27.91 74.59,29.38 77.10,29.87"/>
    </edge>
    <edge id=":J2_4" function="internal">
        <lane id=":J2_4_0" index="0" speed="9.69" length="21.68" shape="65.22,22.03 68.39,26.80 69.14,31.53 67.47,36.21 63.38,40.86"/>
    </edge>
    <edge id=":J2_5" function="internal">
        <lane id=":J2_5_0" index="0" speed="7.53" length="19.55" shape="65.22,22.03 68.65,26.87 68.79,30.31 65.66,32.34 59.25,32.98"/>
    </edge>
    <edge id=":J2_6" function="internal">
        <lane id=":J2_6_0" index="0" speed="5.66" length="10.34" shape="59.28,29.78 62.78,29.45 64.55,28.42 64.58,26.66 62.86,24.19"/>
    </edge>
    <edge id=":J2_7" function="internal">
        <lane id=":J2_7_0" index="0" speed="13.89" length="17.83" shape="59.28,29.78 77.10,29.87"/>
    </edge>
    <edge id=":J2_8" function="internal">
        <lane id=":J2_8_0" index="0" speed="7.47" length="6.34" shape="59.28,29.78 65.57,30.50"/>
    </edge>
    <edge id=":J2_13" function="internal">
        <lane id=":J2_13_0" index="0" speed="7.47" length="13.82" shape="65.57,30.50 65.77,30.52 68.62,32.62 67.82,36.06 63.38,40.86"/>
    </edge>
    <edge id=":J2_9" function="internal">
        <lane id=":J2_9_0" index="0" speed="5.46" length="9.95" shape="61.27,38.45 63.47,36.08 63.86,34.38 62.46,33.34 59.25,32.98"/>
    </edge>
    <edge id=":J2_10" function="internal">
        <lane id=":J2_10_0" index="0" speed="8.50" length="16.43" shape="61.27,38.45 64.42,34.89 65.74,31.33 65.22,27.76 62.86,24.19"/>
    </edge>
    <edge id=":J2_11" function="internal">
        <lane id=":J2_11_0" index="0" speed="13.89" length="18.27" shape="61.27,38.45 64.63,35.72 68.73,32.93 73.05,30.75 77.10,29.87"/>
    </edge>
    <edge id=":J4_0" function="internal">
        <lane id=":J4_0_0" index="0" speed="12.32" length="14.48" shape="18.91,81.82 18.37,79.27 16.89,76.45 14.47,73.36 11.10,69.99"/>
    </edge>
    <edge id=":J4_1" function="internal">
        <lane id=":J4_1_0" index="0" speed="13.89" length="16.81" shape="18.91,81.82 18.98,65.01"/>
    </edge>
    <edge id=":J4_2" function="internal">
        <lane id=":J4_2_0" index="0" speed="12.51" length="3.73" shape="18.91,81.82 19.39,78.59 19.59,78.17"/>
    </edge>
    <edge id=":J4_12" function="internal">
        <lane id=":J4_12_0" index="0" speed="12.51" length="13.42" shape="19.59,78.17 21.03,75.16 23.82,71.52 27.76,67.68"/>
    </edge>
    <edge id=":J4_3" function="internal">
        <lane id=":J4_3_0" index="0" speed="11.47" length="14.35" shape="29.86,70.09 26.42,73.40 23.98,76.44 22.54,79.22 22.11,81.73"/>
    </edge>
    <edge id=":J4_4" function="internal">
        <lane id=":J4_4_0" index="0" speed="10.03" length="20.90" shape="29.86,70.09 25.11,73.21 20.40,74.23 15.73,73.16 11.10,69.99"/>
    </edge>
    <edge id=":J4_5" function="internal">
        <lane id=":J4_5_0" index="0" speed="7.40" length="8.98" shape="29.86,70.09 24.99,73.43 21.93,73.67"/>
    </edge>
    <edge id=":J4_13" function="internal">
        <lane id=":J4_13_0" index="0" speed="7.40" length="9.74" shape="21.93,73.67 21.55,73.70 19.54,70.89 18.98,65.01"/>
    </edge>
    <edge id=":J4_6" function="internal">
        <lane id=":J4_6_0" index="0" speed="5.50" length="9.60" shape="22.18,65.07 22.47,68.09 23.50,69.53 25.26,69.40 27.76,67.68"/>
    </edge>
    <edge id=":J4_7" function="internal">
        <lane id=":J4_7_0" index="0" speed="13.89" length="16.66" shape="22.18,65.07 22.11,81.73"/>
    </edge>
    <edge id=":J4_8" function="internal">
        <lane id=":J4_8_0" index="0" speed="7.41" length="5.36" shape="22.18,65.07 21.45,70.38"/>
    </edge>
    <edge id=":J4_14" function="internal">
        <lane id=":J4_14_0" index="0" speed="7.41" length="13.28" shape="21.45,70.38 21.37,70.92 19.26,73.68 15.84,73.37 11.10,69.99"/>
    </edge>
    <edge id=":J4_9" function="internal">
        <lane id=":J4_9_0" index="0" speed="5.53" length="9.67" shape="13.26,67.63 15.70,69.37 17.47,69.51 18.56,68.06 18.98,65.01"/>
    </edge>
    <edge id=":J4_10" function="internal">
        <lane id=":J4_10_0" index="0" speed="8.87" length="16.15" shape="13.26,67.63 16.83,70.07 20.44,70.89 24.08,70.09 27.76,67.68"/>
    </edge>
    <edge id=":J4_11" function="internal">
        <lane id=":J4_11_0" index="0" speed="13.34" length="3.59" shape="13.26,67.63 15.78,70.18"/>
    </edge>
    <edge id=":J4_15" function="internal">
        <lane id=":J4_15_0" index="0" speed="13.34" length="13.45" shape="15.78,70.18 17.06,71.48 19.81,75.11 21.49,78.53 22.11,81.73"/>
    </edge>
    <edge id=":J5_0" function="internal">
        <lane id=":J5_0_0" index="0" speed="5.69" length="10.32" shape="32.91,-8.60 30.63,-10.50 28.86,-10.62 27.61,-8.96 26.88,-5.53"/>
    </edge>
    <edge id=":J5_1" function="internal">
        <lane id=":J5_1_0" index="0" speed="8.62" length="16.37" shape="32.91,-8.60 29.60,-11.23 26.09,-12.11 22.39,-11.23 18.48,-8.60"/>
    </edge>
    <edge id=":J5_2" function="internal">
        <lane id=":J5_2_0" index="0" speed="13.89" length="16.97" shape="32.91,-8.60 30.26,-11.75 27.71,-15.47 25.80,-19.42 25.07,-23.31"/>
    </edge>
    <edge id=":J5_3" function="internal">
        <lane id=":J5_3_0" index="0" speed="13.04" length="14.69" shape="28.27,-23.28 28.87,-19.74 30.49,-16.53 32.75,-13.57 35.28,-10.76"/>
    </edge>
    <edge id=":J5_4" function="internal">
        <lane id=":J5_4_0" index="0" speed="13.89" length="17.81" shape="28.27,-23.28 28.11,-19.10 27.76,-14.40 27.32,-9.70 26.88,-5.53"/>
    </edge>
    <edge id=":J5_5" function="internal">
        <lane id=":J5_5_0" index="0" speed="13.26" length="3.67" shape="28.27,-23.28 27.64,-20.06 27.46,-19.72"/>
    </edge>
    <edge id=":J5_12" function="internal">
        <lane id=":J5_12_0" index="0" speed="13.26" length="14.41" shape="27.46,-19.72 25.79,-16.54 22.74,-12.72 18.48,-8.60"/>
    </edge>
    <edge id=":J5_6" function="internal">
        <lane id=":J5_6_0" index="0" speed="12.27" length="15.40" shape="16.37,-11.01 20.16,-14.62 22.87,-17.88 24.51,-20.77 25.07,-23.31"/>
    </edge>
    <edge id=":J5_7" function="internal">
        <lane id=":J5_7_0" index="0" speed="9.80" length="10.66" shape="16.37,-11.01 21.44,-14.40 25.89,-15.40"/>
    </edge>
    <edge id=":J5_8" function="internal">
        <lane id=":J5_8_0" index="0" speed="7.46" length="9.57" shape="16.37,-11.01 21.63,-14.70 24.76,-14.99"/>
    </edge>
    <edge id=":J5_13" function="internal">
        <lane id=":J5_13_0" index="0" speed="9.80" length="10.80" shape="25.89,-15.40 26.28,-15.49 30.90,-14.28 35.28,-10.76"/>
    </edge>
    <edge id=":J5_14" function="internal">
        <lane id=":J5_14_0" index="0" speed="7.46" length="10.34" shape="24.76,-14.99 25.14,-15.02 26.89,-11.97 26.88,-5.53"/>
    </edge>
    <edge id=":J5_9" function="internal">
        <lane id=":J5_9_0" index="0" speed="5.46" length="9.88" shape="23.70,-5.88 23.70,-9.08 22.83,-10.59 21.09,-10.43 18.48,-8.60"/>
    </edge>
    <edge id=":J5_10" function="internal">
        <lane id=":J5_10_0" index="0" speed="13.89" length="17.49" shape="23.70,-5.88 24.13,-10.00 24.57,-14.59 24.91,-19.18 25.07,-23.31"/>
    </edge>
    <edge id=":J5_11" function="internal">
        <lane id=":J5_11_0" index="0" speed="7.53" length="6.12" shape="23.70,-5.88 25.02,-11.85"/>
    </edge>
    <edge id=":J5_15" function="internal">
        <lane id=":J5_15_0" index="0" speed="7.53" length="13.18" shape="25.02,-11.85 25.07,-12.07 27.45,-14.94 30.86,-14.51 35.28,-10.76"/>
    </edge>
    <edge id=":J8_0" function="internal">
        <lane id=":J8_0_0" index="0" speed="6.66" length="9.42" shape="28.79,32.72 26.17,33.06 24.29,34.11 23.14,35.87 22.71,38.35"/>
    </edge>
    <edge id=":J8_1" function="internal">
        <lane id=":J8_1_0" index="0" speed="13.89" length="14.80" shape="28.79,32.72 13.99,32.66"/>
    </edge>
    <edge id=":J8_2" function="internal">
        <lane id=":J8_2_0" index="0" speed="7.83" length="4.06" shape="28.79,32.72 24.78,32.11"/>
    </edge>
    <edge id=":J8_12" function="internal">
        <lane id=":J8_12_0" index="0" speed="7.83" length="10.54" shape="24.78,32.11 22.06,30.35 20.63,27.44 20.49,23.39"/>
    </edge>
    <edge id=":J8_3" function="internal">
        <lane id=":J8_3_0" index="0" speed="6.30" length="9.04" shape="23.68,23.74 23.76,26.25 24.65,28.05 26.33,29.14 28.82,29.52"/>
    </edge>
    <edge id=":J8_4" function="internal">
        <lane id=":J8_4_0" index="0" speed="13.89" length="14.65" shape="23.68,23.74 23.31,27.42 23.03,31.04 22.83,34.66 22.71,38.35"/>
    </edge>
    <edge id=":J8_5" function="internal">
        <lane id=":J8_5_0" index="0" speed="8.46" length="4.17" shape="23.68,23.74 22.70,27.64 22.62,27.76"/>
    </edge>
    <edge id=":J8_13" function="internal">
        <lane id=":J8_13_0" index="0" speed="8.46" length="10.51" shape="22.62,27.76 20.77,30.43 17.86,32.10 13.99,32.66"/>
    </edge>
    <edge id=":J8_6" function="internal">
        <lane id=":J8_6_0" index="0" speed="7.06" length="9.91" shape="14.00,29.46 16.59,29.08 18.53,27.94 19.83,26.05 20.49,23.39"/>
    </edge>
    <edge id=":J8_7" function="internal">
        <lane id=":J8_7_0" index="0" speed="13.89" length="14.82" shape="14.00,29.46 28.82,29.52"/>
    </edge>
    <edge id=":J8_8" function="internal">
        <lane id=":J8_8_0" index="0" speed="7.97" length="4.11" shape="14.00,29.46 17.88,30.01 18.04,30.11"/>
    </edge>
    <edge id=":J8_14" function="internal">
        <lane id=":J8_14_0" index="0" speed="7.97" length="10.16" shape="18.04,30.11 20.62,31.68 22.23,34.46 22.71,38.35"/>
    </edge>
    <edge id=":J8_9" function="internal">
        <lane id=":J8_9_0" index="0" speed="6.46" length="9.03" shape="19.51,38.29 19.21,35.83 18.19,34.07 16.45,33.01 13.99,32.66"/>
    </edge>
    <edge id=":J8_10" function="internal">
        <lane id=":J8_10_0" index="0" speed="13.89" length="14.94" shape="19.51,38.29 19.63,34.55 19.83,30.83 20.12,27.11 20.49,23.39"/>
    </edge>
    <edge id=":J8_11" function="internal">
        <lane id=":J8_11_0" index="0" speed="8.13" length="4.14" shape="19.51,38.29 20.16,34.43 20.28,34.24"/>
    </edge>
    <edge id=":J8_15" function="internal">
        <lane id=":J8_15_0" index="0" speed="8.13" length="10.39" shape="20.28,34.24 21.93,31.68 24.81,30.04 28.82,29.52"/>
    </edge>

    <edge id="-E11" from="J1" to="J0" priority="-1" spreadType="center" shape="-29.15,32.64 -137.80,32.37">
        <lane id="-E11_0" index="0" speed="13.89" length="103.39" shape="-34.41,32.63 -137.80,32.37"/>
    </edge>
    <edge id="-E13" from="J2" to="J3" priority="-1" spreadType="center" shape="71.69,29.88 193.51,29.60">
        <lane id="-E13_0" index="0" speed="13.89" length="116.41" shape="77.10,29.87 193.51,29.60"/>
    </edge>
    <edge id="-E14" from="J4" to="J1" priority="-1" spreadType="center" shape="19.30,77.47 -30.25,32.22">
        <lane id="-E14_0" index="0" speed="13.89" length="43.75" shape="11.10,69.99 -21.20,40.48"/>
    </edge>
    <edge id="-E15" from="J2" to="J4" priority="-1" spreadType="center" shape="72.74,32.69 21.37,77.50">
        <lane id="-E15_0" index="0" speed="13.89" length="44.47" shape="63.38,40.86 29.86,70.09"/>
    </edge>
    <edge id="-E16" from="J5" to="J2" priority="-1" spreadType="center" shape="27.78,-18.97 72.87,30.40">
        <lane id="-E16_0" index="0" speed="13.89" length="44.41" shape="35.28,-10.76 65.22,22.03"/>
    </edge>
    <edge id="-E17" from="J1" to="J5" priority="-1" spreadType="center" shape="-30.23,29.84 25.59,-19.09">
        <lane id="-E17_0" index="0" speed="13.89" length="49.46" shape="-20.83,21.60 16.37,-11.01"/>
    </edge>
    <edge id="-E18" from="J5" to="J6" priority="-1" spreadType="center" shape="25.02,-17.88 25.59,-79.82">
        <lane id="-E18_0" index="0" speed="13.89" length="56.51" shape="25.07,-23.31 25.59,-79.82"/>
    </edge>
    <edge id="-E19" from="J4" to="J7" priority="-1" spreadType="center" shape="21.95,76.22 23.37,125.90">
        <lane id="-E19_0" index="0" speed="13.89" length="44.19" shape="22.11,81.73 23.37,125.90"/>
    </edge>
    <edge id="-E20" from="J8" to="J1" priority="-1" spreadType="center" shape="21.31,32.66 -29.17,32.64">
        <lane id="-E20_0" index="0" speed="13.89" length="30.66" shape="13.99,32.66 -16.67,32.64"/>
    </edge>
    <edge id="-E21" from="J2" to="J8" priority="-1" spreadType="center" shape="71.68,33.08 21.20,32.66">
        <lane id="-E21_0" index="0" speed="13.89" length="30.46" shape="59.25,32.98 28.79,32.72"/>
    </edge>
    <edge id="-E22" from="J8" to="J4" priority="-1" spreadType="center" shape="22.86,31.03 21.95,76.30">
        <lane id="-E22_0" index="0" speed="13.89" length="26.73" shape="22.71,38.35 22.18,65.07"/>
    </edge>
    <edge id="-E23" from="J5" to="J8" priority="-1" spreadType="center" shape="28.21,-17.69 22.85,31.28">
        <lane id="-E23_0" index="0" speed="13.89" length="29.45" shape="26.88,-5.53 23.68,23.74"/>
    </edge>
    <edge id="E11" from="J0" to="J1" priority="-1" spreadType="center" shape="-137.80,29.17 -29.14,29.44">
        <lane id="E11_0" index="0" speed="13.89" length="103.40" shape="-137.80,29.17 -34.40,29.43"/>
    </edge>
    <edge id="E13" from="J3" to="J2" priority="-1" spreadType="center" shape="193.52,32.80 71.69,33.08">
        <lane id="E13_0" index="0" speed="13.89" length="116.41" shape="193.52,32.80 77.11,33.07"/>
    </edge>
    <edge id="E14" from="J1" to="J4" priority="-1" spreadType="center" shape="-28.09,29.86 21.45,75.11">
        <lane id="E14_0" index="0" speed="13.89" length="43.75" shape="-19.04,38.12 13.26,67.63"/>
    </edge>
    <edge id="E15" from="J4" to="J2" priority="-1" spreadType="center" shape="19.27,75.09 70.64,30.28">
        <lane id="E15_0" index="0" speed="13.89" length="44.47" shape="27.76,67.68 61.27,38.45"/>
    </edge>
    <edge id="E16" from="J2" to="J5" priority="-1" spreadType="center" shape="70.51,32.56 25.41,-16.81">
        <lane id="E16_0" index="0" speed="13.89" length="44.41" shape="62.86,24.19 32.91,-8.60"/>
    </edge>
    <edge id="E17" from="J5" to="J1" priority="-1" spreadType="center" shape="27.70,-16.68 -28.12,32.24">
        <lane id="E17_0" index="0" speed="13.89" length="49.46" shape="18.48,-8.60 -18.71,24.00"/>
    </edge>
    <edge id="E18" from="J6" to="J5" priority="-1" spreadType="center" shape="28.79,-79.79 28.22,-17.85">
        <lane id="E18_0" index="0" speed="13.89" length="56.51" shape="28.79,-79.79 28.27,-23.28"/>
    </edge>
    <edge id="E19" from="J7" to="J4" priority="-1" spreadType="center" shape="20.17,126.00 18.75,76.31">
        <lane id="E19_0" index="0" speed="13.89" length="44.20" shape="20.17,126.00 18.91,81.82"/>
    </edge>
    <edge id="E20" from="J1" to="J8" priority="-1" spreadType="center" shape="-29.17,29.44 21.32,29.46">
        <lane id="E20_0" index="0" speed="13.89" length="30.66" shape="-16.67,29.44 14.00,29.46"/>
    </edge>
    <edge id="E21" from="J8" to="J2" priority="-1" spreadType="center" shape="21.23,29.46 71.70,29.88">
        <lane id="E21_0" index="0" speed="13.89" length="30.46" shape="28.82,29.52 59.28,29.78"/>
    </edge>
    <edge id="E22" from="J4" to="J8" priority="-1" spreadType="center" shape="18.75,76.23 19.66,30.97">
        <lane id="E22_0" index="0" speed="13.89" length="26.73" shape="18.98,65.01 19.51,38.29"/>
    </edge>
    <edge id="E23" from="J8" to="J5" priority="-1" spreadType="center" shape="19.66,30.94 25.03,-18.04">
        <lane id="E23_0" index="0" speed="13.89" length="29.45" shape="20.49,23.39 23.70,-5.88"/>
    </edge>

    <tlLogic id="J1" type="static" programID="0" offset="0">
        <phase duration="38" state="rrrGGgrrrGGg"/>
        <phase duration="3"  state="rrryyyrrryyy"/>
        <phase duration="37" state="GggrrrGGgrrr"/>
        <phase duration="3"  state="yggrrryygrrr"/>
        <phase duration="6"  state="rgGrrrrrGrrr"/>
        <phase duration="3"  state="ryyrrrrryrrr"/>
    </tlLogic>
    <tlLogic id="J2" type="static" programID="0" offset="0">
        <phase duration="27" state="GGgrrrGGgrrr"/>
        <phase duration="3"  state="Gyyrrryyyrrr"/>
        <phase duration="27" state="GrrrrrrrrGGG"/>
        <phase duration="3"  state="yrrrrrrrryyy"/>
        <phase duration="27" state="rrrGGGGrrrrr"/>
        <phase duration="3"  state="rrryyyGrrrrr"/>
    </tlLogic>
    <tlLogic id="J4" type="static" programID="0" offset="0">
        <phase duration="42" state="GGgrrrGGgrrr"/>
        <phase duration="3"  state="yyyrrryyyrrr"/>
        <phase duration="42" state="rrrGGgrrrGGg"/>
        <phase duration="3"  state="rrryyyrrryyy"/>
    </tlLogic>
    <tlLogic id="J5" type="static" programID="0" offset="0">
        <phase duration="42" state="rrrGGgrrrGGg"/>
        <phase duration="3"  state="rrryyyrrryyy"/>
        <phase duration="42" state="GGGrrrgggrrr"/>
        <phase duration="3"  state="yyyrrryyyrrr"/>
    </tlLogic>
    <tlLogic id="J8" type="static" programID="0" offset="0">
        <phase duration="42" state="GGgrrrGGgrrr"/>
        <phase duration="3"  state="yyyrrryyyrrr"/>
        <phase duration="42" state="rrrGGgrrrGGg"/>
        <phase duration="3"  state="rrryyyrrryyy"/>
    </tlLogic>

    <junction id="J0" type="dead_end" x="-137.80" y="30.77" incLanes="-E11_0" intLanes="" shape="-137.80,30.77 -137.81,33.97 -137.80,30.77"/>
    <junction id="J1" type="traffic_light" x="-29.17" y="31.04" incLanes="-E14_0 -E20_0 E17_0 E11_0" intLanes=":J1_0_0 :J1_12_0 :J1_13_0 :J1_3_0 :J1_4_0 :J1_14_0 :J1_6_0 :J1_7_0 :J1_8_0 :J1_9_0 :J1_10_0 :J1_15_0" shape="-22.28,41.67 -17.96,36.94 -19.13,35.44 -19.12,34.92 -18.70,34.54 -17.89,34.32 -16.67,34.24 -16.67,27.84 -18.56,27.55 -18.92,27.18 -18.89,26.67 -18.47,26.01 -17.66,25.21 -21.88,20.39 -24.20,22.61 -25.94,24.46 -27.46,25.92 -29.13,26.97 -31.32,27.62 -34.40,27.83 -34.41,34.23 -31.41,34.45 -29.27,35.10 -27.65,36.15 -26.18,37.61 -24.51,39.45">
        <request index="0"  response="000000010000" foes="000100010000" cont="0"/>
        <request index="1"  response="111100110000" foes="111100110000" cont="1"/>
        <request index="2"  response="110011110000" foes="110011110000" cont="1"/>
        <request index="3"  response="000000000000" foes="100010000000" cont="0"/>
        <request index="4"  response="000000000110" foes="100110000111" cont="0"/>
        <request index="5"  response="111000000110" foes="111110000110" cont="1"/>
        <request index="6"  response="010000000000" foes="010000000100" cont="0"/>
        <request index="7"  response="110000111000" foes="110000111100" cont="0"/>
        <request index="8"  response="110000110001" foes="110000110011" cont="0"/>
        <request index="9"  response="000000000010" foes="000000100010" cont="0"/>
        <request index="10" response="000000000110" foes="000111100110" cont="0"/>
        <request index="11" response="000000011110" foes="000110111110" cont="1"/>
    </junction>
    <junction id="J2" type="traffic_light" x="71.69" y="31.48" incLanes="E13_0 -E16_0 E21_0 E15_0" intLanes=":J2_0_0 :J2_1_0 :J2_12_0 :J2_3_0 :J2_4_0 :J2_5_0 :J2_6_0 :J2_7_0 :J2_13_0 :J2_9_0 :J2_10_0 :J2_11_0" shape="77.11,34.67 77.10,28.27 74.13,27.46 72.42,26.44 70.57,25.02 68.56,23.19 66.41,20.95 61.68,25.27 62.61,26.90 62.43,27.47 61.82,27.87 60.77,28.11 59.29,28.18 59.24,34.58 61.12,34.89 61.48,35.26 61.45,35.77 61.03,36.43 60.22,37.24 64.43,42.06 66.78,39.84 68.54,38.00 70.09,36.56 71.79,35.52 74.01,34.89">
        <request index="0"  response="000000000000" foes="000100010000" cont="0"/>
        <request index="1"  response="000000000000" foes="111100110000" cont="0"/>
        <request index="2"  response="000011000000" foes="110011110000" cont="1"/>
        <request index="3"  response="100010000000" foes="100010000000" cont="0"/>
        <request index="4"  response="100110000111" foes="100110000111" cont="0"/>
        <request index="5"  response="011110000110" foes="011110000110" cont="0"/>
        <request index="6"  response="000000000000" foes="010000000100" cont="0"/>
        <request index="7"  response="000000000000" foes="110000111100" cont="0"/>
        <request index="8"  response="000000000011" foes="110000110011" cont="1"/>
        <request index="9"  response="000000000010" foes="000000100010" cont="0"/>
        <request index="10" response="000111000110" foes="000111100110" cont="0"/>
        <request index="11" response="000110000110" foes="000110011110" cont="0"/>
    </junction>
    <junction id="J3" type="dead_end" x="193.49" y="31.20" incLanes="-E13_0" intLanes="" shape="193.49,31.20 193.48,28.00 193.49,31.20"/>
    <junction id="J4" type="traffic_light" x="20.35" y="76.27" incLanes="E19_0 -E15_0 -E22_0 E14_0" intLanes=":J4_0_0 :J4_1_0 :J4_12_0 :J4_3_0 :J4_4_0 :J4_13_0 :J4_6_0 :J4_7_0 :J4_14_0 :J4_9_0 :J4_10_0 :J4_15_0" shape="17.31,81.87 23.71,81.69 24.46,78.75 25.45,77.09 26.86,75.29 28.68,73.36 30.92,71.30 26.71,66.48 25.04,67.49 24.47,67.45 24.07,67.04 23.83,66.26 23.78,65.11 17.38,64.98 17.00,66.99 16.57,67.43 15.99,67.48 15.24,67.15 14.34,66.45 10.02,71.17 12.22,73.29 14.02,75.27 15.43,77.12 16.45,78.83 17.07,80.42">
        <request index="0"  response="000000000000" foes="000100010000" cont="0"/>
        <request index="1"  response="100000100000" foes="111100110000" cont="0"/>
        <request index="2"  response="100011100000" foes="110111110000" cont="1"/>
        <request index="3"  response="000010000000" foes="100010000000" cont="0"/>
        <request index="4"  response="000110000111" foes="100110000111" cont="0"/>
        <request index="5"  response="111110000110" foes="111110000110" cont="1"/>
        <request index="6"  response="000000000000" foes="010000000100" cont="0"/>
        <request index="7"  response="100000100000" foes="110000111100" cont="0"/>
        <request index="8"  response="100000100111" foes="110000110111" cont="1"/>
        <request index="9"  response="000000000010" foes="000000100010" cont="0"/>
        <request index="10" response="000111000110" foes="000111100110" cont="0"/>
        <request index="11" response="000110011110" foes="000110111110" cont="1"/>
    </junction>
    <junction id="J5" type="traffic_light" x="26.62" y="-17.86" incLanes="E16_0 E18_0 -E17_0 E23_0" intLanes=":J5_0_0 :J5_1_0 :J5_2_0 :J5_3_0 :J5_4_0 :J5_12_0 :J5_6_0 :J5_13_0 :J5_14_0 :J5_9_0 :J5_10_0 :J5_15_0" shape="31.73,-7.52 36.46,-11.84 34.42,-13.92 32.76,-15.50 31.47,-16.91 30.56,-18.46 30.03,-20.47 29.87,-23.27 23.47,-23.33 22.55,-20.31 21.41,-18.55 19.83,-16.61 17.80,-14.50 15.31,-12.21 19.53,-7.40 21.16,-8.42 21.68,-8.38 22.01,-7.97 22.16,-7.20 22.11,-6.06 28.47,-5.36 29.08,-7.87 29.57,-8.46 30.17,-8.59 30.89,-8.28">
        <request index="0"  response="000000010000" foes="000100010000" cont="0"/>
        <request index="1"  response="111000110000" foes="111100110000" cont="0"/>
        <request index="2"  response="110000110000" foes="110011110000" cont="0"/>
        <request index="3"  response="000010000000" foes="100010000000" cont="0"/>
        <request index="4"  response="000110000000" foes="100110000111" cont="0"/>
        <request index="5"  response="111110000000" foes="111110000110" cont="1"/>
        <request index="6"  response="010000000100" foes="010000000100" cont="0"/>
        <request index="7"  response="110000111100" foes="110000111100" cont="1"/>
        <request index="8"  response="110000110011" foes="110000110011" cont="1"/>
        <request index="9"  response="000000000000" foes="000000100010" cont="0"/>
        <request index="10" response="000110000000" foes="000111100110" cont="0"/>
        <request index="11" response="000110011000" foes="000110111110" cont="1"/>
    </junction>
    <junction id="J6" type="dead_end" x="27.19" y="-79.76" incLanes="-E18_0" intLanes="" shape="27.19,-79.76 23.99,-79.79 27.19,-79.76"/>
    <junction id="J7" type="dead_end" x="21.77" y="125.90" incLanes="-E19_0" intLanes="" shape="21.77,125.90 24.97,125.81 21.77,125.90"/>
    <junction id="J8" type="traffic_light" x="21.26" y="31.06" incLanes="-E21_0 -E23_0 E20_0 E22_0" intLanes=":J8_0_0 :J8_1_0 :J8_12_0 :J8_3_0 :J8_4_0 :J8_13_0 :J8_6_0 :J8_7_0 :J8_14_0 :J8_9_0 :J8_10_0 :J8_15_0" shape="28.78,34.32 28.83,27.92 26.66,27.46 25.94,26.90 25.47,26.13 25.24,25.13 25.27,23.91 18.90,23.22 18.13,25.79 17.42,26.70 16.49,27.34 15.35,27.73 14.00,27.86 13.99,34.26 16.21,34.70 16.97,35.26 17.51,36.04 17.83,37.04 17.91,38.26 24.31,38.39 24.85,36.11 25.47,35.32 26.33,34.76 27.44,34.43">
        <request index="0"  response="000000000000" foes="000100010000" cont="0"/>
        <request index="1"  response="100000100000" foes="111100110000" cont="0"/>
        <request index="2"  response="100111100000" foes="110111110000" cont="1"/>